018
PAH01 
C     0.00000000     1.24255500     1.39922100       
C     0.00000000     2.42851000     0.70697400       
C     0.00000000     2.42851000    -0.70697400       
C     0.00000000     1.24255500    -1.39922100       
C    -0.00000000    -1.24255500    -1.39922100       
C    -0.00000000    -2.42851000    -0.70697400       
C    -0.00000000    -2.42851000     0.70697400       
C    -0.00000000    -1.24255500     1.39922100       
C     0.00000000     0.00000000     0.71566500       
C     0.00000000    -0.00000000    -0.71566500       
H     0.00000000     1.23914300     2.48522400       
H     0.00000000     3.37184200     1.24303600       
H     0.00000000     3.37184200    -1.24303600       
H     0.00000000     1.23914300    -2.48522400       
H    -0.00000000    -1.23914300    -2.48522400       
H    -0.00000000    -3.37184200    -1.24303600       
H    -0.00000000    -3.37184200     1.24303600       
H    -0.00000000    -1.23914300     2.48522400       
024
PAH02 
C    -3.65339800     0.71167900     0.00000000       
C    -2.47513600     1.40368000    -0.00000000       
C    -1.22151600     0.72144100    -0.00000000       
C     0.00000000     1.40020100    -0.00000000       
C     1.22151600     0.72144100    -0.00000000       
C     1.22151600    -0.72144100    -0.00000000       
C     2.47513600    -1.40368000    -0.00000000       
C     3.65339800    -0.71167900     0.00000000       
C     3.65339800     0.71167900     0.00000000       
C     2.47513600     1.40368000    -0.00000000       
C    -0.00000000    -1.40020100    -0.00000000       
C    -1.22151600    -0.72144100    -0.00000000       
C    -2.47513600    -1.40368000    -0.00000000       
C    -3.65339800    -0.71167900     0.00000000       
H    -4.59865600     1.24423400     0.00000000       
H    -2.47218100     2.48953900    -0.00000000       
H     0.00000000     2.48701900    -0.00000000       
H     2.47218100    -2.48953900    -0.00000000       
H     4.59865600    -1.24423400     0.00000000       
H     4.59865600     1.24423400     0.00000000       
H     2.47218100     2.48953900    -0.00000000       
H    -0.00000000    -2.48701900    -0.00000000       
H    -2.47218100    -2.48953900    -0.00000000       
H    -4.59865600    -1.24423400     0.00000000       
030
PAH05 
C    -4.87949000    -0.71394300    -0.00000000       
C    -3.70460600    -1.40589800     0.00000000       
C    -2.44597000    -0.72474300    -0.00000000       
C    -1.23323000    -1.40310300     0.00000000       
C    -0.00000200    -0.72509200    -0.00000000       
C     1.23322700    -1.40310500    -0.00000000       
C     2.44596600    -0.72474500    -0.00000000       
C     3.70460400    -1.40589800    -0.00000000       
C     4.87948700    -0.71394200     0.00000000       
C     4.87949000     0.71394300     0.00000000       
C     3.70460600     1.40589800    -0.00000000       
C     2.44597000     0.72474300     0.00000000       
C     1.23323000     1.40310300    -0.00000000       
C     0.00000200     0.72509200     0.00000000       
C    -1.23322700     1.40310500    -0.00000000       
C    -2.44596600     0.72474500     0.00000000       
C    -3.70460400     1.40589900     0.00000000       
C    -4.87948700     0.71394200     0.00000000       
H    -5.82561300    -1.24489500     0.00000100       
H    -3.70210800    -2.49171300    -0.00000000       
H    -1.23354900    -2.48976800    -0.00000100       
H     1.23355100    -2.48976900     0.00000000       
H     3.70211500    -2.49171400     0.00000000       
H     3.70210800     2.49171300     0.00000000       
H     1.23354900     2.48976800     0.00000000       
H    -1.23355100     2.48976900    -0.00000100       
H    -3.70211500     2.49171400    -0.00000000       
H    -5.82560900     1.24489800     0.00000000       
H     5.82560900    -1.24489800     0.00000000       
H     5.82561300     1.24489500    -0.00000000       
036
PAH10 
C     6.10617600     0.71510400     0.00000000       
C     4.93295500     1.40706900     0.00000000       
C     3.67187800     0.72648000    -0.00000000       
C     2.46324900     1.40464700    -0.00000000       
C     1.22428600     0.72748600    -0.00000000       
C     0.00000000     1.40529900    -0.00000000       
C    -1.22428600     0.72748600    -0.00000000       
C    -2.46324900     1.40464700    -0.00000000       
C    -3.67187800     0.72648000    -0.00000000       
C    -3.67187800    -0.72648000    -0.00000000       
C    -4.93295500    -1.40706900     0.00000000       
C    -6.10617600    -0.71510400     0.00000000       
C    -6.10617600     0.71510400     0.00000000       
C    -4.93295500     1.40706900     0.00000000       
C    -2.46324900    -1.40464700    -0.00000000       
C    -1.22428600    -0.72748600    -0.00000000       
C    -0.00000000    -1.40529900    -0.00000000       
C     1.22428600    -0.72748600    -0.00000000       
C     2.46324900    -1.40464700    -0.00000000       
C     3.67187800    -0.72648000    -0.00000000       
C     4.93295500    -1.40706900     0.00000000       
C     6.10617600    -0.71510400     0.00000000       
H     7.05273700     1.24523400     0.00000000       
H     4.93069200     2.49286000     0.00000000       
H     2.46390000     2.49126900    -0.00000000       
H     0.00000000     2.49180400    -0.00000000       
H    -2.46390000     2.49126900    -0.00000000       
H    -4.93069200    -2.49286000     0.00000000       
H    -7.05273700    -1.24523400     0.00000000       
H    -7.05273700     1.24523400     0.00000000       
H    -4.93069200     2.49286000     0.00000000       
H    -2.46390000    -2.49126900    -0.00000000       
H    -0.00000000    -2.49180400    -0.00000000       
H     2.46390000    -2.49126900    -0.00000000       
H     4.93069200    -2.49286000     0.00000000       
H     7.05273700    -1.24523400     0.00000000       
042
PAH25 
C     7.33315300     0.71572100     0.00000000       
C     6.16079500     1.40770300     0.00000000       
C     4.89846300     0.72741800     0.00000000       
C     3.69193600     1.40552100    -0.00000000       
C     2.45006300     0.72880900    -0.00000000       
C     1.23013900     1.40652100    -0.00000000       
C     0.00000000     0.72944000    -0.00000000       
C    -1.23013900     1.40652100    -0.00000000       
C    -2.45006300     0.72880900    -0.00000000       
C    -3.69193600     1.40552100    -0.00000000       
C    -4.89846300     0.72741800     0.00000000       
C    -6.16079500     1.40770300     0.00000000       
C    -7.33315300     0.71572100     0.00000000       
C    -7.33315300    -0.71572100     0.00000000       
C    -6.16079500    -1.40770300     0.00000000       
C    -4.89846300    -0.72741800     0.00000000       
C    -3.69193600    -1.40552100    -0.00000000       
C    -2.45006300    -0.72880900    -0.00000000       
C    -1.23013900    -1.40652100    -0.00000000       
C    -0.00000000    -0.72944000    -0.00000000       
C     1.23013900    -1.40652100    -0.00000000       
C     2.45006300    -0.72880900    -0.00000000       
C     3.69193600    -1.40552100    -0.00000000       
C     4.89846300    -0.72741800     0.00000000       
C     6.16079500    -1.40770300     0.00000000       
C     7.33315300    -0.71572100     0.00000000       
H     8.27994000     1.24541800     0.00000000       
H     6.15867400     2.49347800    -0.00000000       
H     3.69277600     2.49211800    -0.00000000       
H     1.23046100     2.49298000    -0.00000000       
H    -1.23046100     2.49298000    -0.00000000       
H    -3.69277600     2.49211800    -0.00000000       
H    -6.15867400     2.49347800     0.00000000       
H    -8.27994000     1.24541900     0.00000000       
H    -8.27994000    -1.24541800     0.00000000       
H    -6.15867400    -2.49347800    -0.00000000       
H    -3.69277600    -2.49211800    -0.00000000       
H    -1.23046100    -2.49298000    -0.00000000       
H     1.23046100    -2.49298000    -0.00000000       
H     3.69277600    -2.49211800    -0.00000000       
H     6.15867400    -2.49347800     0.00000000       
H     8.27994000    -1.24541900     0.00000000       
